
---------- Begin Simulation Statistics ----------
simSeconds                                   0.000009                       # Number of seconds simulated (Second)
simTicks                                      8944163                       # Number of ticks simulated (Tick)
finalTick                                     8944163                       # Number of ticks from beginning of simulation (restored from checkpoints and never reset) (Tick)
simFreq                                  1000000000000                       # The number of ticks per simulated second ((Tick/Second))
hostSeconds                                      0.00                       # Real time elapsed on the host (Second)
hostTickRate                              17069013359                       # The number of ticks simulated per host second (ticks/s) ((Tick/Second))
hostMemory                                     103612                       # Number of bytes of host memory used (Byte)

---------- End Simulation Statistics   ----------
